ucte/ucte-converter/src/test/resources/transformerRegulation.uct
##C 2007.05.01
Test case for UCTE export in PowSyBl core package
contact : abdelsalem.hedhili@rte-france.com
##N
##ZME
0AAAAA2  NAME12121212 0 0        0.00000 0.00000 0.00000 0.00000
0BBBBB5  NAME12121212 0 2 115.00 0.00000 0.00000 -33.200 10.0000 0.00000 -300.00 10.0000 -40.000
##L
##T
0BBBBB5  0AAAAA2  1 0 110.0 220.0 125.0 0.2500 10.686 0.000000 0.0000    656
##R
0BBBBB5  0AAAAA2  1 2.000  7  -3